backend/src/smart_meter_simulator/data/grids/grid_bus_network.glm
// Generated GridLAB-D model from the CINELDI LV reference grid
// Source: ../../../cineldi_lv_reference_system/lv_reference_grids/80_bus_rural_reference_grid
// Regenerated by scripts/regen_reference_glm.py -- do not hand-edit;
// change the constants in that script and re-run instead.
//
// Base: 0.23 kV L-L, 0.015967 MVA -> Zbase 3.3131 ohm. Per-branch r/x are carried through exactly
// as resistance_ohm_per_km / reactance_ohm_per_km on each line; the
// line_configuration objects hold the nominal per-conductor values and exist
// for real GridLAB-D tooling (the explicit per-line values take priority in
// this backend's parser). capacity_kw comes from the MATPOWER rateA column.
//
// ref_lv_bus_1 is the MV substation busbar (12.7 kV L-N
// -> ~22 kV L-L on ABCN, matching TRANSFORMER_MV_KV). Its LV network hangs off
// three distribution transformers (pcc_1..pcc_3) rather than lines, which is
// what makes each group a microgrid zone: the loader partitions on the line-only
// graph, so everything behind a transformer is one zone, and that transformer is
// the PCC tripped to island it. Zone codes come from the transformer names (1..3)
// -- keep them below IOT_NUM_ZONES (default 10) or the parent bridge hashes them
// to an arbitrary zone_<n> stream instead of routing them.
//
// The grid has four physical feeders; the fourth (ref_lv_bus_78/79/80, a short
// DER-less stub) is served from zone 3 over Line_54 instead of taking its own
// PCC, so the model has three zones.
//
// Loads are the 2021-01-01 00:00:00 snapshot of p_load/q_load (VA), not a time series.
// PV (15 x 10 kW) is added on top of the
// dataset, which ships no DER.
module powerflow;
module generators;

// ---- conductor types (nominal; per-line values below take priority) ----
object line_configuration {
    name "lc_ex_3x25_al";
    z11 1.255677419+0.09433189781j ohm/km;
    resistance_ohm_per_km 1.255677419;
    reactance_ohm_per_km 0.09433189781;
    impedance_length_unit km;
    // EX 3x25 Al, mean over 31 branches
}

object line_configuration {
    name "lc_ex_3x50_al";
    z11 0.6409999814+0.08364415442j ohm/km;
    resistance_ohm_per_km 0.6409999814;
    reactance_ohm_per_km 0.08364415442;
    impedance_length_unit km;
    // EX 3x50 Al, mean over 19 branches
}

object line_configuration {
    name "lc_ex_3x95_al";
    z11 0.3025931034+0.08771567871j ohm/km;
    resistance_ohm_per_km 0.3025931034;
    reactance_ohm_per_km 0.08771567871;
    impedance_length_unit km;
    // EX 3x95 Al, mean over 29 branches
}

// ---- buses ----
object meter {
    name "ref_lv_bus_1";
    phases ABCN;
    nominal_voltage 12700.00;
}

object meter {
    name "ref_lv_bus_2";
    phases ABCN;
    nominal_voltage 230.00;
}

object meter {
    name "ref_lv_bus_3";
    phases ABCN;
    nominal_voltage 230.00;
}

object meter {
    name "ref_lv_bus_4";
    phases ABCN;
    nominal_voltage 230.00;
}

object meter {
    name "ref_lv_bus_5";
    phases ABCN;
    nominal_voltage 230.00;
}

object meter {
    name "ref_lv_bus_6";
    phases ABCN;
    nominal_voltage 230.00;
}

object meter {
    name "ref_lv_bus_7";
    phases ABCN;
    nominal_voltage 230.00;
}

object meter {
    name "ref_lv_bus_8";
    phases ABCN;
    nominal_voltage 230.00;
}

object meter {
    name "ref_lv_bus_9";
    phases ABCN;
    nominal_voltage 230.00;
}

object meter {
    name "ref_lv_bus_10";
    phases ABCN;
    nominal_voltage 230.00;
}

object meter {
    name "ref_lv_bus_11";
    phases ABCN;
    nominal_voltage 230.00;
}

object meter {
    name "ref_lv_bus_12";
    phases ABCN;
    nominal_voltage 230.00;
}

object meter {
    name "ref_lv_bus_13";
    phases ABCN;
    nominal_voltage 230.00;
}

object meter {
    name "ref_lv_bus_14";
    phases ABCN;
    nominal_voltage 230.00;
}

object meter {
    name "ref_lv_bus_15";
    phases ABCN;
    nominal_voltage 230.00;
}

object meter {
    name "ref_lv_bus_16";
    phases ABCN;
    nominal_voltage 230.00;
}

object meter {
    name "ref_lv_bus_17";
    phases ABCN;
    nominal_voltage 230.00;
}

object meter {
    name "ref_lv_bus_18";
    phases ABCN;
    nominal_voltage 230.00;
}

object meter {
    name "ref_lv_bus_19";
    phases ABCN;
    nominal_voltage 230.00;
}

object meter {
    name "ref_lv_bus_20";
    phases ABCN;
    nominal_voltage 230.00;
}

object meter {
    name "ref_lv_bus_21";
    phases ABCN;
    nominal_voltage 230.00;
}

object meter {
    name "ref_lv_bus_22";
    phases ABCN;
    nominal_voltage 230.00;
}

object meter {
    name "ref_lv_bus_23";
    phases ABCN;
    nominal_voltage 230.00;
}

object meter {
    name "ref_lv_bus_24";
    phases ABCN;
    nominal_voltage 230.00;
}

object meter {
    name "ref_lv_bus_25";
    phases ABCN;
    nominal_voltage 230.00;
}

object meter {
    name "ref_lv_bus_26";
    phases ABCN;
    nominal_voltage 230.00;
}

object meter {
    name "ref_lv_bus_27";
    phases ABCN;
    nominal_voltage 230.00;
}

object meter {
    name "ref_lv_bus_28";
    phases ABCN;
    nominal_voltage 230.00;
}

object meter {
    name "ref_lv_bus_29";
    phases ABCN;
    nominal_voltage 230.00;
}

object meter {
    name "ref_lv_bus_30";
    phases ABCN;
    nominal_voltage 230.00;
}

object meter {
    name "ref_lv_bus_31";
    phases ABCN;
    nominal_voltage 230.00;
}

object meter {
    name "ref_lv_bus_32";
    phases ABCN;
    nominal_voltage 230.00;
}

object meter {
    name "ref_lv_bus_33";
    phases ABCN;
    nominal_voltage 230.00;
}

object meter {
    name "ref_lv_bus_34";
    phases ABCN;
    nominal_voltage 230.00;
}

object meter {
    name "ref_lv_bus_35";
    phases ABCN;
    nominal_voltage 230.00;
}

object meter {
    name "ref_lv_bus_36";
    phases ABCN;
    nominal_voltage 230.00;
}

object meter {
    name "ref_lv_bus_37";
    phases ABCN;
    nominal_voltage 230.00;
}

object meter {
    name "ref_lv_bus_38";
    phases ABCN;
    nominal_voltage 230.00;
}

object meter {
    name "ref_lv_bus_39";
    phases ABCN;
    nominal_voltage 230.00;
}

object meter {
    name "ref_lv_bus_40";
    phases ABCN;
    nominal_voltage 230.00;
}

object meter {
    name "ref_lv_bus_41";
    phases ABCN;
    nominal_voltage 230.00;
}

object meter {
    name "ref_lv_bus_42";
    phases ABCN;
    nominal_voltage 230.00;
}

object meter {
    name "ref_lv_bus_43";
    phases ABCN;
    nominal_voltage 230.00;
}

object meter {
    name "ref_lv_bus_44";
    phases ABCN;
    nominal_voltage 230.00;
}

object meter {
    name "ref_lv_bus_45";
    phases ABCN;
    nominal_voltage 230.00;
}

object meter {
    name "ref_lv_bus_46";
    phases ABCN;
    nominal_voltage 230.00;
}

object meter {
    name "ref_lv_bus_47";
    phases ABCN;
    nominal_voltage 230.00;
}

object meter {
    name "ref_lv_bus_48";
    phases ABCN;
    nominal_voltage 230.00;
}

object meter {
    name "ref_lv_bus_49";
    phases ABCN;
    nominal_voltage 230.00;
}

object meter {
    name "ref_lv_bus_50";
    phases ABCN;
    nominal_voltage 230.00;
}

object meter {
    name "ref_lv_bus_51";
    phases ABCN;
    nominal_voltage 230.00;
}

object meter {
    name "ref_lv_bus_52";
    phases ABCN;
    nominal_voltage 230.00;
}

object meter {
    name "ref_lv_bus_53";
    phases ABCN;
    nominal_voltage 230.00;
}

object meter {
    name "ref_lv_bus_54";
    phases ABCN;
    nominal_voltage 230.00;
}

object meter {
    name "ref_lv_bus_55";
    phases ABCN;
    nominal_voltage 230.00;
}

object meter {
    name "ref_lv_bus_56";
    phases ABCN;
    nominal_voltage 230.00;
}

object meter {
    name "ref_lv_bus_57";
    phases ABCN;
    nominal_voltage 230.00;
}

object meter {
    name "ref_lv_bus_58";
    phases ABCN;
    nominal_voltage 230.00;
}

object meter {
    name "ref_lv_bus_59";
    phases ABCN;
    nominal_voltage 230.00;
}

object meter {
    name "ref_lv_bus_60";
    phases ABCN;
    nominal_voltage 230.00;
}

object meter {
    name "ref_lv_bus_61";
    phases ABCN;
    nominal_voltage 230.00;
}

object meter {
    name "ref_lv_bus_62";
    phases ABCN;
    nominal_voltage 230.00;
}

object meter {
    name "ref_lv_bus_63";
    phases ABCN;
    nominal_voltage 230.00;
}

object meter {
    name "ref_lv_bus_64";
    phases ABCN;
    nominal_voltage 230.00;
}

object meter {
    name "ref_lv_bus_65";
    phases ABCN;
    nominal_voltage 230.00;
}

object meter {
    name "ref_lv_bus_66";
    phases ABCN;
    nominal_voltage 230.00;
}

object meter {
    name "ref_lv_bus_67";
    phases ABCN;
    nominal_voltage 230.00;
}

object meter {
    name "ref_lv_bus_68";
    phases ABCN;
    nominal_voltage 230.00;
}

object meter {
    name "ref_lv_bus_69";
    phases ABCN;
    nominal_voltage 230.00;
}

object meter {
    name "ref_lv_bus_70";
    phases ABCN;
    nominal_voltage 230.00;
}

object meter {
    name "ref_lv_bus_71";
    phases ABCN;
    nominal_voltage 230.00;
}

object meter {
    name "ref_lv_bus_72";
    phases ABCN;
    nominal_voltage 230.00;
}

object meter {
    name "ref_lv_bus_73";
    phases ABCN;
    nominal_voltage 230.00;
}

object meter {
    name "ref_lv_bus_74";
    phases ABCN;
    nominal_voltage 230.00;
}

object meter {
    name "ref_lv_bus_75";
    phases ABCN;
    nominal_voltage 230.00;
}

object meter {
    name "ref_lv_bus_76";
    phases ABCN;
    nominal_voltage 230.00;
}

object meter {
    name "ref_lv_bus_77";
    phases ABCN;
    nominal_voltage 230.00;
}

object meter {
    name "ref_lv_bus_78";
    phases ABCN;
    nominal_voltage 230.00;
}

object meter {
    name "ref_lv_bus_79";
    phases ABCN;
    nominal_voltage 230.00;
}

object meter {
    name "ref_lv_bus_80";
    phases ABCN;
    nominal_voltage 230.00;
}

// ---- PCC transformers (CINELDI LV branches promoted to MV/LV units) ----
object transformer_configuration {
    name "pcc_1_cfg";
    connect_type WYE_WYE;
    power_rating 100;
    primary_voltage 12700.00;
    secondary_voltage 230.00;
    resistance 0.01600;
    reactance 0.03666;
    // sized for zone peak 30.8 kVA / PV 60 kW
    // x 1.25 -> next standard size
}

object transformer {
    name "pcc_1";
    phases ABCN;
    from "ref_lv_bus_1";
    to "ref_lv_bus_2";
    configuration "pcc_1_cfg";
    // replaces CINELDI branch 2-1 (11.7 m cable)
}

object transformer_configuration {
    name "pcc_2_cfg";
    connect_type WYE_WYE;
    power_rating 100;
    primary_voltage 12700.00;
    secondary_voltage 230.00;
    resistance 0.01600;
    reactance 0.03666;
    // sized for zone peak 27.5 kVA / PV 70 kW
    // x 1.25 -> next standard size
}

object transformer {
    name "pcc_2";
    phases ABCN;
    from "ref_lv_bus_1";
    to "ref_lv_bus_31";
    configuration "pcc_2_cfg";
    // replaces CINELDI branch 31-1 (11.5 m cable)
}

object transformer_configuration {
    name "pcc_3_cfg";
    connect_type WYE_WYE;
    power_rating 50;
    primary_voltage 12700.00;
    secondary_voltage 230.00;
    resistance 0.01900;
    reactance 0.03520;
    // sized for zone peak 23.3 kVA / PV 20 kW
    // x 1.25 -> next standard size
}

object transformer {
    name "pcc_3";
    phases ABCN;
    from "ref_lv_bus_1";
    to "ref_lv_bus_61";
    configuration "pcc_3_cfg";
    // replaces CINELDI branch 61-1 (13.6 m cable)
}

// ---- lines ----
object overhead_line {
    name "Line_0";
    phases ABCN;
    from "ref_lv_bus_35";
    to "ref_lv_bus_36";
    length 142.26 ft;
    configuration "lc_ex_3x25_al";
    resistance_ohm_per_km 1.2;
    reactance_ohm_per_km 0.081681409;
    impedance_length_unit km;
    capacity_kw 37.85;
    // EX 3x25 Al, 43.4 m
}

object overhead_line {
    name "Line_2";
    phases ABCN;
    from "ref_lv_bus_7";
    to "ref_lv_bus_6";
    length 111.90 ft;
    configuration "lc_ex_3x95_al";
    resistance_ohm_per_km 0.32;
    reactance_ohm_per_km 0.075398224;
    impedance_length_unit km;
    capacity_kw 87.64;
    // EX 3x95 Al, 34.1 m
}

object overhead_line {
    name "Line_3";
    phases ABCN;
    from "ref_lv_bus_63";
    to "ref_lv_bus_64";
    length 157.62 ft;
    configuration "lc_ex_3x50_al";
    resistance_ohm_per_km 0.6409999728;
    reactance_ohm_per_km 0.08600000292;
    impedance_length_unit km;
    capacity_kw 55.77;
    // EX 3x50 Al, 48.0 m
}

object overhead_line {
    name "Line_4";
    phases ABCN;
    from "ref_lv_bus_26";
    to "ref_lv_bus_27";
    length 118.08 ft;
    configuration "lc_ex_3x50_al";
    resistance_ohm_per_km 0.6409999728;
    reactance_ohm_per_km 0.08600000292;
    impedance_length_unit km;
    capacity_kw 55.77;
    // EX 3x50 Al, 36.0 m
}

object overhead_line {
    name "Line_5";
    phases ABCN;
    from "ref_lv_bus_26";
    to "ref_lv_bus_28";
    length 445.85 ft;
    configuration "lc_ex_3x95_al";
    resistance_ohm_per_km 0.32;
    reactance_ohm_per_km 0.075398224;
    impedance_length_unit km;
    capacity_kw 87.64;
    // EX 3x95 Al, 135.9 m
}

object overhead_line {
    name "Line_6";
    phases ABCN;
    from "ref_lv_bus_51";
    to "ref_lv_bus_52";
    length 74.62 ft;
    configuration "lc_ex_3x25_al";
    resistance_ohm_per_km 1.2;
    reactance_ohm_per_km 0.081681409;
    impedance_length_unit km;
    capacity_kw 37.85;
    // EX 3x25 Al, 22.7 m
}

object overhead_line {
    name "Line_7";
    phases ABCN;
    from "ref_lv_bus_5";
    to "ref_lv_bus_6";
    length 277.93 ft;
    configuration "lc_ex_3x95_al";
    resistance_ohm_per_km 0.32;
    reactance_ohm_per_km 0.075398224;
    impedance_length_unit km;
    capacity_kw 87.64;
    // EX 3x95 Al, 84.7 m
}

object overhead_line {
    name "Line_8";
    phases ABCN;
    from "ref_lv_bus_33";
    to "ref_lv_bus_34";
    length 91.43 ft;
    configuration "lc_ex_3x95_al";
    resistance_ohm_per_km 0.32;
    reactance_ohm_per_km 0.075398224;
    impedance_length_unit km;
    capacity_kw 87.64;
    // EX 3x95 Al, 27.9 m
}

object overhead_line {
    name "Line_10";
    phases ABCN;
    from "ref_lv_bus_66";
    to "ref_lv_bus_67";
    length 402.49 ft;
    configuration "lc_ex_3x50_al";
    resistance_ohm_per_km 0.641;
    reactance_ohm_per_km 0.078539816;
    impedance_length_unit km;
    capacity_kw 55.77;
    // EX 3x50 Al, 122.7 m
}

object overhead_line {
    name "Line_11";
    phases ABCN;
    from "ref_lv_bus_65";
    to "ref_lv_bus_66";
    length 165.97 ft;
    configuration "lc_ex_3x50_al";
    resistance_ohm_per_km 0.641;
    reactance_ohm_per_km 0.078539816;
    impedance_length_unit km;
    capacity_kw 55.77;
    // EX 3x50 Al, 50.6 m
}

object overhead_line {
    name "Line_12";
    phases ABCN;
    from "ref_lv_bus_43";
    to "ref_lv_bus_44";
    length 169.13 ft;
    configuration "lc_ex_3x95_al";
    resistance_ohm_per_km 0.32;
    reactance_ohm_per_km 0.075398224;
    impedance_length_unit km;
    capacity_kw 87.64;
    // EX 3x95 Al, 51.5 m
}

object overhead_line {
    name "Line_13";
    phases ABCN;
    from "ref_lv_bus_79";
    to "ref_lv_bus_80";
    length 269.24 ft;
    configuration "lc_ex_3x95_al";
    resistance_ohm_per_km 0.32;
    reactance_ohm_per_km 0.082;
    impedance_length_unit km;
    capacity_kw 87.64;
    // EX 3x95 Al, 82.1 m
}

object overhead_line {
    name "Line_14";
    phases ABCN;
    from "ref_lv_bus_55";
    to "ref_lv_bus_54";
    length 288.35 ft;
    configuration "lc_ex_3x25_al";
    resistance_ohm_per_km 1.123;
    reactance_ohm_per_km 0.2714808;
    impedance_length_unit km;
    capacity_kw 37.85;
    // EX 3x25 Al, 87.9 m
}

object overhead_line {
    name "Line_15";
    phases ABCN;
    from "ref_lv_bus_35";
    to "ref_lv_bus_34";
    length 230.71 ft;
    configuration "lc_ex_3x95_al";
    resistance_ohm_per_km 0.32;
    reactance_ohm_per_km 0.075398224;
    impedance_length_unit km;
    capacity_kw 87.64;
    // EX 3x95 Al, 70.3 m
}

object overhead_line {
    name "Line_16";
    phases ABCN;
    from "ref_lv_bus_14";
    to "ref_lv_bus_6";
    length 381.12 ft;
    configuration "lc_ex_3x25_al";
    resistance_ohm_per_km 1.2;
    reactance_ohm_per_km 0.081681409;
    impedance_length_unit km;
    capacity_kw 37.85;
    // EX 3x25 Al, 116.2 m
}

object overhead_line {
    name "Line_17";
    phases ABCN;
    from "ref_lv_bus_5";
    to "ref_lv_bus_4";
    length 813.24 ft;
    configuration "lc_ex_3x95_al";
    resistance_ohm_per_km 0.32;
    reactance_ohm_per_km 0.075398224;
    impedance_length_unit km;
    capacity_kw 87.64;
    // EX 3x95 Al, 247.9 m
}

object overhead_line {
    name "Line_18";
    phases ABCN;
    from "ref_lv_bus_63";
    to "ref_lv_bus_62";
    length 119.81 ft;
    configuration "lc_ex_3x95_al";
    resistance_ohm_per_km 0.32;
    reactance_ohm_per_km 0.075398224;
    impedance_length_unit km;
    capacity_kw 87.64;
    // EX 3x95 Al, 36.5 m
}

object overhead_line {
    name "Line_19";
    phases ABCN;
    from "ref_lv_bus_35";
    to "ref_lv_bus_37";
    length 256.16 ft;
    configuration "lc_ex_3x95_al";
    resistance_ohm_per_km 0.32;
    reactance_ohm_per_km 0.075398224;
    impedance_length_unit km;
    capacity_kw 87.64;
    // EX 3x95 Al, 78.1 m
}

object overhead_line {
    name "Line_20";
    phases ABCN;
    from "ref_lv_bus_38";
    to "ref_lv_bus_39";
    length 123.90 ft;
    configuration "lc_ex_3x25_al";
    resistance_ohm_per_km 1.2;
    reactance_ohm_per_km 0.081681409;
    impedance_length_unit km;
    capacity_kw 37.85;
    // EX 3x25 Al, 37.8 m
}

object overhead_line {
    name "Line_21";
    phases ABCN;
    from "ref_lv_bus_7";
    to "ref_lv_bus_8";
    length 112.29 ft;
    configuration "lc_ex_3x50_al";
    resistance_ohm_per_km 0.6409999728;
    reactance_ohm_per_km 0.08600000292;
    impedance_length_unit km;
    capacity_kw 55.77;
    // EX 3x50 Al, 34.2 m
}

object overhead_line {
    name "Line_22";
    phases ABCN;
    from "ref_lv_bus_15";
    to "ref_lv_bus_6";
    length 114.72 ft;
    configuration "lc_ex_3x50_al";
    resistance_ohm_per_km 0.6409999728;
    reactance_ohm_per_km 0.08600000292;
    impedance_length_unit km;
    capacity_kw 55.77;
    // EX 3x50 Al, 35.0 m
}

object overhead_line {
    name "Line_23";
    phases ABCN;
    from "ref_lv_bus_57";
    to "ref_lv_bus_54";
    length 79.09 ft;
    configuration "lc_ex_3x25_al";
    resistance_ohm_per_km 1.2;
    reactance_ohm_per_km 0.081681409;
    impedance_length_unit km;
    capacity_kw 37.85;
    // EX 3x25 Al, 24.1 m
}

object overhead_line {
    name "Line_24";
    phases ABCN;
    from "ref_lv_bus_51";
    to "ref_lv_bus_35";
    length 542.56 ft;
    configuration "lc_ex_3x25_al";
    resistance_ohm_per_km 1.2;
    reactance_ohm_per_km 0.081681409;
    impedance_length_unit km;
    capacity_kw 37.85;
    // EX 3x25 Al, 165.4 m
}

object overhead_line {
    name "Line_25";
    phases ABCN;
    from "ref_lv_bus_16";
    to "ref_lv_bus_17";
    length 46.42 ft;
    configuration "lc_ex_3x25_al";
    resistance_ohm_per_km 1.2;
    reactance_ohm_per_km 0.081681409;
    impedance_length_unit km;
    capacity_kw 37.85;
    // EX 3x25 Al, 14.2 m
}

object overhead_line {
    name "Line_26";
    phases ABCN;
    from "ref_lv_bus_76";
    to "ref_lv_bus_66";
    length 69.34 ft;
    configuration "lc_ex_3x25_al";
    resistance_ohm_per_km 1.2;
    reactance_ohm_per_km 0.081681409;
    impedance_length_unit km;
    capacity_kw 37.85;
    // EX 3x25 Al, 21.1 m
}

object overhead_line {
    name "Line_27";
    phases ABCN;
    from "ref_lv_bus_16";
    to "ref_lv_bus_5";
    length 147.60 ft;
    configuration "lc_ex_3x25_al";
    resistance_ohm_per_km 1.2;
    reactance_ohm_per_km 0.081681409;
    impedance_length_unit km;
    capacity_kw 37.85;
    // EX 3x25 Al, 45.0 m
}

object overhead_line {
    name "Line_28";
    phases ABCN;
    from "ref_lv_bus_69";
    to "ref_lv_bus_70";
    length 84.98 ft;
    configuration "lc_ex_3x50_al";
    resistance_ohm_per_km 0.641;
    reactance_ohm_per_km 0.078539816;
    impedance_length_unit km;
    capacity_kw 55.77;
    // EX 3x50 Al, 25.9 m
}

object overhead_line {
    name "Line_29";
    phases ABCN;
    from "ref_lv_bus_69";
    to "ref_lv_bus_68";
    length 193.90 ft;
    configuration "lc_ex_3x50_al";
    resistance_ohm_per_km 0.641;
    reactance_ohm_per_km 0.078539816;
    impedance_length_unit km;
    capacity_kw 55.77;
    // EX 3x50 Al, 59.1 m
}

object overhead_line {
    name "Line_30";
    phases ABCN;
    from "ref_lv_bus_45";
    to "ref_lv_bus_44";
    length 329.39 ft;
    configuration "lc_ex_3x25_al";
    resistance_ohm_per_km 1.2;
    reactance_ohm_per_km 0.081681409;
    impedance_length_unit km;
    capacity_kw 37.85;
    // EX 3x25 Al, 100.4 m
}

object overhead_line {
    name "Line_31";
    phases ABCN;
    from "ref_lv_bus_38";
    to "ref_lv_bus_37";
    length 211.07 ft;
    configuration "lc_ex_3x95_al";
    resistance_ohm_per_km 0.32;
    reactance_ohm_per_km 0.075398224;
    impedance_length_unit km;
    capacity_kw 87.64;
    // EX 3x95 Al, 64.3 m
}

object overhead_line {
    name "Line_32";
    phases ABCN;
    from "ref_lv_bus_3";
    to "ref_lv_bus_2";
    length 195.45 ft;
    configuration "lc_ex_3x95_al";
    resistance_ohm_per_km 0.32;
    reactance_ohm_per_km 0.075398224;
    impedance_length_unit km;
    capacity_kw 87.64;
    // EX 3x95 Al, 59.6 m
}

object overhead_line {
    name "Line_33";
    phases ABCN;
    from "ref_lv_bus_31";
    to "ref_lv_bus_32";
    length 1233.46 ft;
    configuration "lc_ex_3x95_al";
    resistance_ohm_per_km 0.3601;
    reactance_ohm_per_km 0.235695989;
    impedance_length_unit km;
    capacity_kw 87.64;
    // EX 3x95 Al, 376.0 m
}

object overhead_line {
    name "Line_35";
    phases ABCN;
    from "ref_lv_bus_41";
    to "ref_lv_bus_40";
    length 62.41 ft;
    configuration "lc_ex_3x50_al";
    resistance_ohm_per_km 0.6409999728;
    reactance_ohm_per_km 0.08600000292;
    impedance_length_unit km;
    capacity_kw 87.64;
    // EX 3x50 Al, 19.0 m
}

object overhead_line {
    name "Line_36";
    phases ABCN;
    from "ref_lv_bus_19";
    to "ref_lv_bus_20";
    length 66.41 ft;
    configuration "lc_ex_3x50_al";
    resistance_ohm_per_km 0.6409999728;
    reactance_ohm_per_km 0.08600000292;
    impedance_length_unit km;
    capacity_kw 55.77;
    // EX 3x50 Al, 20.2 m
}

object overhead_line {
    name "Line_37";
    phases ABCN;
    from "ref_lv_bus_56";
    to "ref_lv_bus_55";
    length 47.84 ft;
    configuration "lc_ex_3x25_al";
    resistance_ohm_per_km 3.08;
    reactance_ohm_per_km 0.09424778;
    impedance_length_unit km;
    capacity_kw 55.77;
    // EX 3x25 Al, 14.6 m
}

object overhead_line {
    name "Line_38";
    phases ABCN;
    from "ref_lv_bus_71";
    to "ref_lv_bus_70";
    length 100.22 ft;
    configuration "lc_ex_3x25_al";
    resistance_ohm_per_km 1.2;
    reactance_ohm_per_km 0.081681409;
    impedance_length_unit km;
    capacity_kw 37.85;
    // EX 3x25 Al, 30.5 m
}

object overhead_line {
    name "Line_39";
    phases ABCN;
    from "ref_lv_bus_18";
    to "ref_lv_bus_5";
    length 120.71 ft;
    configuration "lc_ex_3x25_al";
    resistance_ohm_per_km 1.2;
    reactance_ohm_per_km 0.081681409;
    impedance_length_unit km;
    capacity_kw 37.85;
    // EX 3x25 Al, 36.8 m
}

object overhead_line {
    name "Line_40";
    phases ABCN;
    from "ref_lv_bus_43";
    to "ref_lv_bus_42";
    length 415.43 ft;
    configuration "lc_ex_3x95_al";
    resistance_ohm_per_km 0.32;
    reactance_ohm_per_km 0.075398224;
    impedance_length_unit km;
    capacity_kw 37.85;
    // EX 3x95 Al, 126.6 m
}

object overhead_line {
    name "Line_41";
    phases ABCN;
    from "ref_lv_bus_21";
    to "ref_lv_bus_4";
    length 139.96 ft;
    configuration "lc_ex_3x25_al";
    resistance_ohm_per_km 1.2;
    reactance_ohm_per_km 0.081681409;
    impedance_length_unit km;
    capacity_kw 87.64;
    // EX 3x25 Al, 42.7 m
}

object overhead_line {
    name "Line_42";
    phases ABCN;
    from "ref_lv_bus_43";
    to "ref_lv_bus_47";
    length 222.41 ft;
    configuration "lc_ex_3x25_al";
    resistance_ohm_per_km 1.2;
    reactance_ohm_per_km 0.081681409;
    impedance_length_unit km;
    capacity_kw 37.85;  // estimated: rateA blank in source
    // EX 3x25 Al, 67.8 m
}

object overhead_line {
    name "Line_43";
    phases ABCN;
    from "ref_lv_bus_3";
    to "ref_lv_bus_4";
    length 225.50 ft;
    configuration "lc_ex_3x95_al";
    resistance_ohm_per_km 0.32;
    reactance_ohm_per_km 0.075398224;
    impedance_length_unit km;
    capacity_kw 37.85;
    // EX 3x95 Al, 68.7 m
}

object overhead_line {
    name "Line_44";
    phases ABCN;
    from "ref_lv_bus_3";
    to "ref_lv_bus_23";
    length 1217.61 ft;
    configuration "lc_ex_3x95_al";
    resistance_ohm_per_km 0.32;
    reactance_ohm_per_km 0.075398224;
    impedance_length_unit km;
    capacity_kw 37.85;
    // EX 3x95 Al, 371.1 m
}

object overhead_line {
    name "Line_45";
    phases ABCN;
    from "ref_lv_bus_10";
    to "ref_lv_bus_9";
    length 331.61 ft;
    configuration "lc_ex_3x50_al";
    resistance_ohm_per_km 0.641;
    reactance_ohm_per_km 0.078539816;
    impedance_length_unit km;
    capacity_kw 87.64;
    // EX 3x50 Al, 101.1 m
}

object overhead_line {
    name "Line_46";
    phases ABCN;
    from "ref_lv_bus_48";
    to "ref_lv_bus_42";
    length 144.44 ft;
    configuration "lc_ex_3x50_al";
    resistance_ohm_per_km 0.6409999728;
    reactance_ohm_per_km 0.08600000292;
    impedance_length_unit km;
    capacity_kw 87.64;
    // EX 3x50 Al, 44.0 m
}

object overhead_line {
    name "Line_47";
    phases ABCN;
    from "ref_lv_bus_70";
    to "ref_lv_bus_72";
    length 685.82 ft;
    configuration "lc_ex_3x25_al";
    resistance_ohm_per_km 1.2;
    reactance_ohm_per_km 0.081681409;
    impedance_length_unit km;
    capacity_kw 55.77;
    // EX 3x25 Al, 209.0 m
}

object overhead_line {
    name "Line_48";
    phases ABCN;
    from "ref_lv_bus_38";
    to "ref_lv_bus_40";
    length 292.91 ft;
    configuration "lc_ex_3x95_al";
    resistance_ohm_per_km 0.32;
    reactance_ohm_per_km 0.075398224;
    impedance_length_unit km;
    capacity_kw 55.77;
    // EX 3x95 Al, 89.3 m
}

object overhead_line {
    name "Line_49";
    phases ABCN;
    from "ref_lv_bus_46";
    to "ref_lv_bus_44";
    length 87.95 ft;
    configuration "lc_ex_3x25_al";
    resistance_ohm_per_km 1.2;
    reactance_ohm_per_km 0.081681409;
    impedance_length_unit km;
    capacity_kw 37.85;  // estimated: rateA blank in source
    // EX 3x25 Al, 26.8 m
}

object overhead_line {
    name "Line_50";
    phases ABCN;
    from "ref_lv_bus_68";
    to "ref_lv_bus_67";
    length 155.31 ft;
    configuration "lc_ex_3x25_al";
    resistance_ohm_per_km 1.2;
    reactance_ohm_per_km 0.081681409;
    impedance_length_unit km;
    capacity_kw 37.85;
    // EX 3x25 Al, 47.3 m
}

object overhead_line {
    name "Line_51";
    phases ABCN;
    from "ref_lv_bus_5";
    to "ref_lv_bus_19";
    length 38.59 ft;
    configuration "lc_ex_3x95_al";
    resistance_ohm_per_km 0.32;
    reactance_ohm_per_km 0.082;
    impedance_length_unit km;
    capacity_kw 87.64;
    // EX 3x95 Al, 11.8 m
}

object overhead_line {
    name "Line_52";
    phases ABCN;
    from "ref_lv_bus_49";
    to "ref_lv_bus_37";
    length 93.61 ft;
    configuration "lc_ex_3x25_al";
    resistance_ohm_per_km 1.2;
    reactance_ohm_per_km 0.081681409;
    impedance_length_unit km;
    capacity_kw 37.85;
    // EX 3x25 Al, 28.5 m
}

object overhead_line {
    name "Line_53";
    phases ABCN;
    from "ref_lv_bus_73";
    to "ref_lv_bus_69";
    length 103.51 ft;
    configuration "lc_ex_3x25_al";
    resistance_ohm_per_km 1.2;
    reactance_ohm_per_km 0.081681409;
    impedance_length_unit km;
    capacity_kw 37.85;
    // EX 3x25 Al, 31.5 m
}

object overhead_line {
    name "Line_54";
    phases ABCN;
    from "ref_lv_bus_61";
    to "ref_lv_bus_78";
    length 91.47 ft;
    configuration "lc_ex_3x95_al";
    resistance_ohm_per_km 0.224605935;
    reactance_ohm_per_km 0.08151079978;
    impedance_length_unit km;
    capacity_kw 87.64;
    // EX 3x95 Al + EX 3x95 Al, 27.9 m (CINELDI branches 54 and 34 in series)
}

object overhead_line {
    name "Line_55";
    phases ABCN;
    from "ref_lv_bus_33";
    to "ref_lv_bus_32";
    length 159.31 ft;
    configuration "lc_ex_3x95_al";
    resistance_ohm_per_km 0.3601;
    reactance_ohm_per_km 0.235695989;
    impedance_length_unit km;
    capacity_kw 37.85;
    // EX 3x95 Al, 48.6 m
}

object overhead_line {
    name "Line_56";
    phases ABCN;
    from "ref_lv_bus_67";
    to "ref_lv_bus_75";
    length 211.29 ft;
    configuration "lc_ex_3x25_al";
    resistance_ohm_per_km 1.2;
    reactance_ohm_per_km 0.081681409;
    impedance_length_unit km;
    capacity_kw 37.85;
    // EX 3x25 Al, 64.4 m
}

object overhead_line {
    name "Line_57";
    phases ABCN;
    from "ref_lv_bus_13";
    to "ref_lv_bus_9";
    length 51.35 ft;
    configuration "lc_ex_3x25_al";
    resistance_ohm_per_km 1.2;
    reactance_ohm_per_km 0.081681409;
    impedance_length_unit km;
    capacity_kw 87.64;
    // EX 3x25 Al, 15.7 m
}

object overhead_line {
    name "Line_58";
    phases ABCN;
    from "ref_lv_bus_60";
    to "ref_lv_bus_32";
    length 101.40 ft;
    configuration "lc_ex_3x50_al";
    resistance_ohm_per_km 0.6409999728;
    reactance_ohm_per_km 0.08600000292;
    impedance_length_unit km;
    capacity_kw 87.64;
    // EX 3x50 Al, 30.9 m
}

object overhead_line {
    name "Line_59";
    phases ABCN;
    from "ref_lv_bus_78";
    to "ref_lv_bus_79";
    length 1063.60 ft;
    configuration "lc_ex_3x95_al";
    resistance_ohm_per_km 0.32;
    reactance_ohm_per_km 0.075398224;
    impedance_length_unit km;
    capacity_kw 37.85;
    // EX 3x95 Al, 324.2 m
}

object overhead_line {
    name "Line_60";
    phases ABCN;
    from "ref_lv_bus_22";
    to "ref_lv_bus_21";
    length 88.13 ft;
    configuration "lc_ex_3x50_al";
    resistance_ohm_per_km 0.6409999728;
    reactance_ohm_per_km 0.08600000292;
    impedance_length_unit km;
    capacity_kw 37.85;
    // EX 3x50 Al, 26.9 m
}

object overhead_line {
    name "Line_61";
    phases ABCN;
    from "ref_lv_bus_25";
    to "ref_lv_bus_24";
    length 122.99 ft;
    configuration "lc_ex_3x50_al";
    resistance_ohm_per_km 0.6409999728;
    reactance_ohm_per_km 0.08600000292;
    impedance_length_unit km;
    capacity_kw 55.77;
    // EX 3x50 Al, 37.5 m
}

object overhead_line {
    name "Line_62";
    phases ABCN;
    from "ref_lv_bus_34";
    to "ref_lv_bus_54";
    length 136.04 ft;
    configuration "lc_ex_3x25_al";
    resistance_ohm_per_km 1.123;
    reactance_ohm_per_km 0.2714808;
    impedance_length_unit km;
    capacity_kw 87.64;
    // EX 3x25 Al, 41.5 m
}

object overhead_line {
    name "Line_63";
    phases ABCN;
    from "ref_lv_bus_49";
    to "ref_lv_bus_50";
    length 76.35 ft;
    configuration "lc_ex_3x50_al";
    resistance_ohm_per_km 0.6409999728;
    reactance_ohm_per_km 0.08600000292;
    impedance_length_unit km;
    capacity_kw 55.77;
    // EX 3x50 Al, 23.3 m
}

object overhead_line {
    name "Line_64";
    phases ABCN;
    from "ref_lv_bus_11";
    to "ref_lv_bus_10";
    length 180.41 ft;
    configuration "lc_ex_3x25_al";
    resistance_ohm_per_km 1.2;
    reactance_ohm_per_km 0.081681409;
    impedance_length_unit km;
    capacity_kw 55.77;
    // EX 3x25 Al, 55.0 m
}

object overhead_line {
    name "Line_65";
    phases ABCN;
    from "ref_lv_bus_58";
    to "ref_lv_bus_33";
    length 58.76 ft;
    configuration "lc_ex_3x25_al";
    resistance_ohm_per_km 1.2;
    reactance_ohm_per_km 0.081681409;
    impedance_length_unit km;
    capacity_kw 37.85;
    // EX 3x25 Al, 17.9 m
}

object overhead_line {
    name "Line_66";
    phases ABCN;
    from "ref_lv_bus_23";
    to "ref_lv_bus_24";
    length 140.49 ft;
    configuration "lc_ex_3x95_al";
    resistance_ohm_per_km 0.32;
    reactance_ohm_per_km 0.075398224;
    impedance_length_unit km;
    capacity_kw 55.77;
    // EX 3x95 Al, 42.8 m
}

object overhead_line {
    name "Line_67";
    phases ABCN;
    from "ref_lv_bus_40";
    to "ref_lv_bus_42";
    length 170.20 ft;
    configuration "lc_ex_3x95_al";
    resistance_ohm_per_km 0.32;
    reactance_ohm_per_km 0.075398224;
    impedance_length_unit km;
    capacity_kw 37.85;
    // EX 3x95 Al, 51.9 m
}

object overhead_line {
    name "Line_68";
    phases ABCN;
    from "ref_lv_bus_51";
    to "ref_lv_bus_53";
    length 297.05 ft;
    configuration "lc_ex_3x25_al";
    resistance_ohm_per_km 1.2;
    reactance_ohm_per_km 0.081681409;
    impedance_length_unit km;
    capacity_kw 37.85;
    // EX 3x25 Al, 90.5 m
}

object overhead_line {
    name "Line_69";
    phases ABCN;
    from "ref_lv_bus_7";
    to "ref_lv_bus_9";
    length 138.35 ft;
    configuration "lc_ex_3x95_al";
    resistance_ohm_per_km 0.32;
    reactance_ohm_per_km 0.075398224;
    impedance_length_unit km;
    capacity_kw 87.64;
    // EX 3x95 Al, 42.2 m
}

object overhead_line {
    name "Line_70";
    phases ABCN;
    from "ref_lv_bus_61";
    to "ref_lv_bus_62";
    length 340.66 ft;
    configuration "lc_ex_3x95_al";
    resistance_ohm_per_km 0.32;
    reactance_ohm_per_km 0.075398224;
    impedance_length_unit km;
    capacity_kw 87.64;
    // EX 3x95 Al, 103.8 m
}

object overhead_line {
    name "Line_71";
    phases ABCN;
    from "ref_lv_bus_63";
    to "ref_lv_bus_65";
    length 310.55 ft;
    configuration "lc_ex_3x50_al";
    resistance_ohm_per_km 0.641;
    reactance_ohm_per_km 0.078539816;
    impedance_length_unit km;
    capacity_kw 37.85;
    // EX 3x50 Al, 94.7 m
}

object overhead_line {
    name "Line_72";
    phases ABCN;
    from "ref_lv_bus_26";
    to "ref_lv_bus_23";
    length 159.41 ft;
    configuration "lc_ex_3x95_al";
    resistance_ohm_per_km 0.32;
    reactance_ohm_per_km 0.075398224;
    impedance_length_unit km;
    capacity_kw 87.64;
    // EX 3x95 Al, 48.6 m
}

object overhead_line {
    name "Line_73";
    phases ABCN;
    from "ref_lv_bus_29";
    to "ref_lv_bus_28";
    length 97.33 ft;
    configuration "lc_ex_3x25_al";
    resistance_ohm_per_km 1.2;
    reactance_ohm_per_km 0.081681409;
    impedance_length_unit km;
    capacity_kw 87.64;
    // EX 3x25 Al, 29.7 m
}

object overhead_line {
    name "Line_74";
    phases ABCN;
    from "ref_lv_bus_12";
    to "ref_lv_bus_10";
    length 244.01 ft;
    configuration "lc_ex_3x50_al";
    resistance_ohm_per_km 0.6409999728;
    reactance_ohm_per_km 0.08600000292;
    impedance_length_unit km;
    capacity_kw 55.77;
    // EX 3x50 Al, 74.4 m
}

object overhead_line {
    name "Line_75";
    phases ABCN;
    from "ref_lv_bus_29";
    to "ref_lv_bus_30";
    length 87.11 ft;
    configuration "lc_ex_3x50_al";
    resistance_ohm_per_km 0.6409999728;
    reactance_ohm_per_km 0.08600000292;
    impedance_length_unit km;
    capacity_kw 87.64;
    // EX 3x50 Al, 26.6 m
}

object overhead_line {
    name "Line_76";
    phases ABCN;
    from "ref_lv_bus_65";
    to "ref_lv_bus_77";
    length 77.89 ft;
    configuration "lc_ex_3x25_al";
    resistance_ohm_per_km 1.2;
    reactance_ohm_per_km 0.081681409;
    impedance_length_unit km;
    capacity_kw 37.85;
    // EX 3x25 Al, 23.7 m
}

object overhead_line {
    name "Line_77";
    phases ABCN;
    from "ref_lv_bus_33";
    to "ref_lv_bus_59";
    length 146.99 ft;
    configuration "lc_ex_3x25_al";
    resistance_ohm_per_km 1.2;
    reactance_ohm_per_km 0.081681409;
    impedance_length_unit km;
    capacity_kw 55.77;
    // EX 3x25 Al, 44.8 m
}

object overhead_line {
    name "Line_78";
    phases ABCN;
    from "ref_lv_bus_74";
    to "ref_lv_bus_68";
    length 31.19 ft;
    configuration "lc_ex_3x25_al";
    resistance_ohm_per_km 1.2;
    reactance_ohm_per_km 0.081681409;
    impedance_length_unit km;
    capacity_kw 55.77;
    // EX 3x25 Al, 9.5 m
}

// ---- loads (2021-01-01 00:00:00 snapshot, VA) ----
object load {
    name "Load_0";
    parent "ref_lv_bus_8";
    phases ABCN;
    constant_power_A 2547.0+25.0j;
    nominal_voltage 230.00;
}

object load {
    name "Load_1";
    parent "ref_lv_bus_11";
    phases ABCN;
    constant_power_A 3459.0+166.0j;
    nominal_voltage 230.00;
}

object load {
    name "Load_2";
    parent "ref_lv_bus_12";
    phases ABCN;
    constant_power_A 1422.0+23.0j;
    nominal_voltage 230.00;
}

object load {
    name "Load_3";
    parent "ref_lv_bus_13";
    phases ABCN;
    constant_power_A 1995.0+222.0j;
    nominal_voltage 230.00;
}

object load {
    name "Load_4";
    parent "ref_lv_bus_14";
    phases ABCN;
    constant_power_A 1372.0+52.0j;
    nominal_voltage 230.00;
}

object load {
    name "Load_5";
    parent "ref_lv_bus_15";
    phases ABCN;
    constant_power_A 1653.0+0.0j;
    nominal_voltage 230.00;
}

object load {
    name "Load_6";
    parent "ref_lv_bus_18";
    phases ABCN;
    constant_power_A 762.0+69.0j;
    nominal_voltage 230.00;
}

object load {
    name "Load_7";
    parent "ref_lv_bus_20";
    phases ABCN;
    constant_power_A 941.0+0.0j;
    nominal_voltage 230.00;
}

object load {
    name "Load_8";
    parent "ref_lv_bus_22";
    phases ABCN;
    constant_power_A 33.0+29.0j;
    nominal_voltage 230.00;
}

object load {
    name "Load_9";
    parent "ref_lv_bus_25";
    phases ABCN;
    constant_power_A 145.0+0.0j;
    nominal_voltage 230.00;
}

object load {
    name "Load_10";
    parent "ref_lv_bus_27";
    phases ABCN;
    constant_power_A 1817.0+132.0j;
    nominal_voltage 230.00;
}

object load {
    name "Load_11";
    parent "ref_lv_bus_30";
    phases ABCN;
    constant_power_A 1938.0+0.0j;
    nominal_voltage 230.00;
}

object load {
    name "Load_12";
    parent "ref_lv_bus_36";
    phases ABCN;
    constant_power_A 1.0+0.0j;
    nominal_voltage 230.00;
}

object load {
    name "Load_13";
    parent "ref_lv_bus_39";
    phases ABCN;
    constant_power_A 1088.0+0.0j;
    nominal_voltage 230.00;
}

object load {
    name "Load_14";
    parent "ref_lv_bus_41";
    phases ABCN;
    constant_power_A 2474.0+0.0j;
    nominal_voltage 230.00;
}

object load {
    name "Load_15";
    parent "ref_lv_bus_45";
    phases ABCN;
    constant_power_A 4.0+2.0j;
    nominal_voltage 230.00;
}

object load {
    name "Load_16";
    parent "ref_lv_bus_46";
    phases ABCN;
    constant_power_A 7.0+1.0j;
    nominal_voltage 230.00;
}

object load {
    name "Load_17";
    parent "ref_lv_bus_48";
    phases ABCN;
    constant_power_A 2537.0+0.0j;
    nominal_voltage 230.00;
}

object load {
    name "Load_18";
    parent "ref_lv_bus_50";
    phases ABCN;
    constant_power_A 345.0+0.0j;
    nominal_voltage 230.00;
}

object load {
    name "Load_19";
    parent "ref_lv_bus_53";
    phases ABCN;
    constant_power_A 107.0+0.0j;
    nominal_voltage 230.00;
}

object load {
    name "Load_20";
    parent "ref_lv_bus_56";
    phases ABCN;
    constant_power_A 305.0+0.0j;
    nominal_voltage 230.00;
}

object load {
    name "Load_21";
    parent "ref_lv_bus_57";
    phases ABCN;
    constant_power_A 88.0+0.0j;
    nominal_voltage 230.00;
}

object load {
    name "Load_22";
    parent "ref_lv_bus_58";
    phases ABCN;
    constant_power_A 642.0+22.0j;
    nominal_voltage 230.00;
}

object load {
    name "Load_23";
    parent "ref_lv_bus_59";
    phases ABCN;
    constant_power_A 327.0+0.0j;
    nominal_voltage 230.00;
}

object load {
    name "Load_24";
    parent "ref_lv_bus_60";
    phases ABCN;
    constant_power_A 1705.0+0.0j;
    nominal_voltage 230.00;
}

object load {
    name "Load_25";
    parent "ref_lv_bus_64";
    phases ABCN;
    constant_power_A 2359.0+106.0j;
    nominal_voltage 230.00;
}

object load {
    name "Load_26";
    parent "ref_lv_bus_71";
    phases ABCN;
    constant_power_A 464.0+0.0j;
    nominal_voltage 230.00;
}

object load {
    name "Load_27";
    parent "ref_lv_bus_73";
    phases ABCN;
    constant_power_A 1357.0+894.0j;
    nominal_voltage 230.00;
}

object load {
    name "Load_28";
    parent "ref_lv_bus_74";
    phases ABCN;
    constant_power_A 269.0+0.0j;
    nominal_voltage 230.00;
}

object load {
    name "Load_29";
    parent "ref_lv_bus_75";
    phases ABCN;
    constant_power_A 33.0+25.0j;
    nominal_voltage 230.00;
}

object load {
    name "Load_30";
    parent "ref_lv_bus_77";
    phases ABCN;
    constant_power_A 0.0+0.0j;
    nominal_voltage 230.00;
}

object load {
    name "Load_31";
    parent "ref_lv_bus_80";
    phases ABCN;
    constant_power_A 519.0+84.0j;
    nominal_voltage 230.00;
}

// ---- PV (inverter first, solar parented to it) ----
object inverter {
    name "PV_Inverter_ref_lv_bus_4";
    parent "ref_lv_bus_4";
    phases ABCN;
    generator_status ONLINE;
    generator_mode SUPPLY_DRIVEN;
    inverter_type FOUR_QUADRANT;
    four_quadrant_control_mode CONSTANT_PF;
    rated_power 10000.0;
    inverter_efficiency 0.96;
    power_factor 1.0;
}

object solar {
    name "PV_ref_lv_bus_4";
    parent "PV_Inverter_ref_lv_bus_4";
    phases ABCN;
    generator_mode SUPPLY_DRIVEN;
    generator_status ONLINE;
    panel_type SINGLE_CRYSTAL_SILICON;
    SOLAR_POWER_MODEL FLATPLATE;
    SOLAR_TILT_MODEL SOLPOS;
    orientation FIXED_AXIS;
    tilt_angle 15.0;
    orientation_azimuth 180.0;
    efficiency 0.20;
    area 538.20 sf;
}

object inverter {
    name "PV_Inverter_ref_lv_bus_10";
    parent "ref_lv_bus_10";
    phases ABCN;
    generator_status ONLINE;
    generator_mode SUPPLY_DRIVEN;
    inverter_type FOUR_QUADRANT;
    four_quadrant_control_mode CONSTANT_PF;
    rated_power 10000.0;
    inverter_efficiency 0.96;
    power_factor 1.0;
}

object solar {
    name "PV_ref_lv_bus_10";
    parent "PV_Inverter_ref_lv_bus_10";
    phases ABCN;
    generator_mode SUPPLY_DRIVEN;
    generator_status ONLINE;
    panel_type SINGLE_CRYSTAL_SILICON;
    SOLAR_POWER_MODEL FLATPLATE;
    SOLAR_TILT_MODEL SOLPOS;
    orientation FIXED_AXIS;
    tilt_angle 15.0;
    orientation_azimuth 180.0;
    efficiency 0.20;
    area 538.20 sf;
}

object inverter {
    name "PV_Inverter_ref_lv_bus_20";
    parent "ref_lv_bus_20";
    phases ABCN;
    generator_status ONLINE;
    generator_mode SUPPLY_DRIVEN;
    inverter_type FOUR_QUADRANT;
    four_quadrant_control_mode CONSTANT_PF;
    rated_power 10000.0;
    inverter_efficiency 0.96;
    power_factor 1.0;
}

object solar {
    name "PV_ref_lv_bus_20";
    parent "PV_Inverter_ref_lv_bus_20";
    phases ABCN;
    generator_mode SUPPLY_DRIVEN;
    generator_status ONLINE;
    panel_type SINGLE_CRYSTAL_SILICON;
    SOLAR_POWER_MODEL FLATPLATE;
    SOLAR_TILT_MODEL SOLPOS;
    orientation FIXED_AXIS;
    tilt_angle 15.0;
    orientation_azimuth 180.0;
    efficiency 0.20;
    area 538.20 sf;
}

object inverter {
    name "PV_Inverter_ref_lv_bus_27";
    parent "ref_lv_bus_27";
    phases ABCN;
    generator_status ONLINE;
    generator_mode SUPPLY_DRIVEN;
    inverter_type FOUR_QUADRANT;
    four_quadrant_control_mode CONSTANT_PF;
    rated_power 10000.0;
    inverter_efficiency 0.96;
    power_factor 1.0;
}

object solar {
    name "PV_ref_lv_bus_27";
    parent "PV_Inverter_ref_lv_bus_27";
    phases ABCN;
    generator_mode SUPPLY_DRIVEN;
    generator_status ONLINE;
    panel_type SINGLE_CRYSTAL_SILICON;
    SOLAR_POWER_MODEL FLATPLATE;
    SOLAR_TILT_MODEL SOLPOS;
    orientation FIXED_AXIS;
    tilt_angle 15.0;
    orientation_azimuth 180.0;
    efficiency 0.20;
    area 538.20 sf;
}

object inverter {
    name "PV_Inverter_ref_lv_bus_28";
    parent "ref_lv_bus_28";
    phases ABCN;
    generator_status ONLINE;
    generator_mode SUPPLY_DRIVEN;
    inverter_type FOUR_QUADRANT;
    four_quadrant_control_mode CONSTANT_PF;
    rated_power 10000.0;
    inverter_efficiency 0.96;
    power_factor 1.0;
}

object solar {
    name "PV_ref_lv_bus_28";
    parent "PV_Inverter_ref_lv_bus_28";
    phases ABCN;
    generator_mode SUPPLY_DRIVEN;
    generator_status ONLINE;
    panel_type SINGLE_CRYSTAL_SILICON;
    SOLAR_POWER_MODEL FLATPLATE;
    SOLAR_TILT_MODEL SOLPOS;
    orientation FIXED_AXIS;
    tilt_angle 15.0;
    orientation_azimuth 180.0;
    efficiency 0.20;
    area 538.20 sf;
}

object inverter {
    name "PV_Inverter_ref_lv_bus_29";
    parent "ref_lv_bus_29";
    phases ABCN;
    generator_status ONLINE;
    generator_mode SUPPLY_DRIVEN;
    inverter_type FOUR_QUADRANT;
    four_quadrant_control_mode CONSTANT_PF;
    rated_power 10000.0;
    inverter_efficiency 0.96;
    power_factor 1.0;
}

object solar {
    name "PV_ref_lv_bus_29";
    parent "PV_Inverter_ref_lv_bus_29";
    phases ABCN;
    generator_mode SUPPLY_DRIVEN;
    generator_status ONLINE;
    panel_type SINGLE_CRYSTAL_SILICON;
    SOLAR_POWER_MODEL FLATPLATE;
    SOLAR_TILT_MODEL SOLPOS;
    orientation FIXED_AXIS;
    tilt_angle 15.0;
    orientation_azimuth 180.0;
    efficiency 0.20;
    area 538.20 sf;
}

object inverter {
    name "PV_Inverter_ref_lv_bus_31";
    parent "ref_lv_bus_31";
    phases ABCN;
    generator_status ONLINE;
    generator_mode SUPPLY_DRIVEN;
    inverter_type FOUR_QUADRANT;
    four_quadrant_control_mode CONSTANT_PF;
    rated_power 10000.0;
    inverter_efficiency 0.96;
    power_factor 1.0;
}

object solar {
    name "PV_ref_lv_bus_31";
    parent "PV_Inverter_ref_lv_bus_31";
    phases ABCN;
    generator_mode SUPPLY_DRIVEN;
    generator_status ONLINE;
    panel_type SINGLE_CRYSTAL_SILICON;
    SOLAR_POWER_MODEL FLATPLATE;
    SOLAR_TILT_MODEL SOLPOS;
    orientation FIXED_AXIS;
    tilt_angle 15.0;
    orientation_azimuth 180.0;
    efficiency 0.20;
    area 538.20 sf;
}

object inverter {
    name "PV_Inverter_ref_lv_bus_32";
    parent "ref_lv_bus_32";
    phases ABCN;
    generator_status ONLINE;
    generator_mode SUPPLY_DRIVEN;
    inverter_type FOUR_QUADRANT;
    four_quadrant_control_mode CONSTANT_PF;
    rated_power 10000.0;
    inverter_efficiency 0.96;
    power_factor 1.0;
}

object solar {
    name "PV_ref_lv_bus_32";
    parent "PV_Inverter_ref_lv_bus_32";
    phases ABCN;
    generator_mode SUPPLY_DRIVEN;
    generator_status ONLINE;
    panel_type SINGLE_CRYSTAL_SILICON;
    SOLAR_POWER_MODEL FLATPLATE;
    SOLAR_TILT_MODEL SOLPOS;
    orientation FIXED_AXIS;
    tilt_angle 15.0;
    orientation_azimuth 180.0;
    efficiency 0.20;
    area 538.20 sf;
}

object inverter {
    name "PV_Inverter_ref_lv_bus_33";
    parent "ref_lv_bus_33";
    phases ABCN;
    generator_status ONLINE;
    generator_mode SUPPLY_DRIVEN;
    inverter_type FOUR_QUADRANT;
    four_quadrant_control_mode CONSTANT_PF;
    rated_power 10000.0;
    inverter_efficiency 0.96;
    power_factor 1.0;
}

object solar {
    name "PV_ref_lv_bus_33";
    parent "PV_Inverter_ref_lv_bus_33";
    phases ABCN;
    generator_mode SUPPLY_DRIVEN;
    generator_status ONLINE;
    panel_type SINGLE_CRYSTAL_SILICON;
    SOLAR_POWER_MODEL FLATPLATE;
    SOLAR_TILT_MODEL SOLPOS;
    orientation FIXED_AXIS;
    tilt_angle 15.0;
    orientation_azimuth 180.0;
    efficiency 0.20;
    area 538.20 sf;
}

object inverter {
    name "PV_Inverter_ref_lv_bus_48";
    parent "ref_lv_bus_48";
    phases ABCN;
    generator_status ONLINE;
    generator_mode SUPPLY_DRIVEN;
    inverter_type FOUR_QUADRANT;
    four_quadrant_control_mode CONSTANT_PF;
    rated_power 10000.0;
    inverter_efficiency 0.96;
    power_factor 1.0;
}

object solar {
    name "PV_ref_lv_bus_48";
    parent "PV_Inverter_ref_lv_bus_48";
    phases ABCN;
    generator_mode SUPPLY_DRIVEN;
    generator_status ONLINE;
    panel_type SINGLE_CRYSTAL_SILICON;
    SOLAR_POWER_MODEL FLATPLATE;
    SOLAR_TILT_MODEL SOLPOS;
    orientation FIXED_AXIS;
    tilt_angle 15.0;
    orientation_azimuth 180.0;
    efficiency 0.20;
    area 538.20 sf;
}

object inverter {
    name "PV_Inverter_ref_lv_bus_49";
    parent "ref_lv_bus_49";
    phases ABCN;
    generator_status ONLINE;
    generator_mode SUPPLY_DRIVEN;
    inverter_type FOUR_QUADRANT;
    four_quadrant_control_mode CONSTANT_PF;
    rated_power 10000.0;
    inverter_efficiency 0.96;
    power_factor 1.0;
}

object solar {
    name "PV_ref_lv_bus_49";
    parent "PV_Inverter_ref_lv_bus_49";
    phases ABCN;
    generator_mode SUPPLY_DRIVEN;
    generator_status ONLINE;
    panel_type SINGLE_CRYSTAL_SILICON;
    SOLAR_POWER_MODEL FLATPLATE;
    SOLAR_TILT_MODEL SOLPOS;
    orientation FIXED_AXIS;
    tilt_angle 15.0;
    orientation_azimuth 180.0;
    efficiency 0.20;
    area 538.20 sf;
}

object inverter {
    name "PV_Inverter_ref_lv_bus_56";
    parent "ref_lv_bus_56";
    phases ABCN;
    generator_status ONLINE;
    generator_mode SUPPLY_DRIVEN;
    inverter_type FOUR_QUADRANT;
    four_quadrant_control_mode CONSTANT_PF;
    rated_power 10000.0;
    inverter_efficiency 0.96;
    power_factor 1.0;
}

object solar {
    name "PV_ref_lv_bus_56";
    parent "PV_Inverter_ref_lv_bus_56";
    phases ABCN;
    generator_mode SUPPLY_DRIVEN;
    generator_status ONLINE;
    panel_type SINGLE_CRYSTAL_SILICON;
    SOLAR_POWER_MODEL FLATPLATE;
    SOLAR_TILT_MODEL SOLPOS;
    orientation FIXED_AXIS;
    tilt_angle 15.0;
    orientation_azimuth 180.0;
    efficiency 0.20;
    area 538.20 sf;
}

object inverter {
    name "PV_Inverter_ref_lv_bus_60";
    parent "ref_lv_bus_60";
    phases ABCN;
    generator_status ONLINE;
    generator_mode SUPPLY_DRIVEN;
    inverter_type FOUR_QUADRANT;
    four_quadrant_control_mode CONSTANT_PF;
    rated_power 10000.0;
    inverter_efficiency 0.96;
    power_factor 1.0;
}

object solar {
    name "PV_ref_lv_bus_60";
    parent "PV_Inverter_ref_lv_bus_60";
    phases ABCN;
    generator_mode SUPPLY_DRIVEN;
    generator_status ONLINE;
    panel_type SINGLE_CRYSTAL_SILICON;
    SOLAR_POWER_MODEL FLATPLATE;
    SOLAR_TILT_MODEL SOLPOS;
    orientation FIXED_AXIS;
    tilt_angle 15.0;
    orientation_azimuth 180.0;
    efficiency 0.20;
    area 538.20 sf;
}

object inverter {
    name "PV_Inverter_ref_lv_bus_62";
    parent "ref_lv_bus_62";
    phases ABCN;
    generator_status ONLINE;
    generator_mode SUPPLY_DRIVEN;
    inverter_type FOUR_QUADRANT;
    four_quadrant_control_mode CONSTANT_PF;
    rated_power 10000.0;
    inverter_efficiency 0.96;
    power_factor 1.0;
}

object solar {
    name "PV_ref_lv_bus_62";
    parent "PV_Inverter_ref_lv_bus_62";
    phases ABCN;
    generator_mode SUPPLY_DRIVEN;
    generator_status ONLINE;
    panel_type SINGLE_CRYSTAL_SILICON;
    SOLAR_POWER_MODEL FLATPLATE;
    SOLAR_TILT_MODEL SOLPOS;
    orientation FIXED_AXIS;
    tilt_angle 15.0;
    orientation_azimuth 180.0;
    efficiency 0.20;
    area 538.20 sf;
}

object inverter {
    name "PV_Inverter_ref_lv_bus_70";
    parent "ref_lv_bus_70";
    phases ABCN;
    generator_status ONLINE;
    generator_mode SUPPLY_DRIVEN;
    inverter_type FOUR_QUADRANT;
    four_quadrant_control_mode CONSTANT_PF;
    rated_power 10000.0;
    inverter_efficiency 0.96;
    power_factor 1.0;
}

object solar {
    name "PV_ref_lv_bus_70";
    parent "PV_Inverter_ref_lv_bus_70";
    phases ABCN;
    generator_mode SUPPLY_DRIVEN;
    generator_status ONLINE;
    panel_type SINGLE_CRYSTAL_SILICON;
    SOLAR_POWER_MODEL FLATPLATE;
    SOLAR_TILT_MODEL SOLPOS;
    orientation FIXED_AXIS;
    tilt_angle 15.0;
    orientation_azimuth 180.0;
    efficiency 0.20;
    area 538.20 sf;
}
